@<TRIPOS>MOLECULE
*****
 37 44 0 0 0
SMALL
GASTEIGER

@<TRIPOS>ATOM
      1 FE          0.0000    0.0000    0.0000 Fe      1  UNL1        0.0000
      2 N           1.9764    0.0000    0.0000 N.ar    1  UNL1        0.0000
      3 N           0.0000    1.9884    0.0000 N.ar    1  UNL1        0.0000
      4 N          -1.9764    0.0000    0.0000 N.ar    1  UNL1        0.0000
      5 N           0.0000   -1.9884    0.0000 N.ar    1  UNL1        0.0000
      6 C           2.8182   -1.0903    0.0000 C.ar    1  UNL1        0.0000
      7 C           2.8182    1.0903    0.0000 C.ar    1  UNL1        0.0000
      8 C           1.0918    2.8249    0.0000 C.ar    1  UNL1        0.0000
      9 C          -1.0918    2.8249    0.0000 C.ar    1  UNL1        0.0000
     10 C          -2.8182    1.0903    0.0000 C.ar    1  UNL1        0.0000
     11 C          -2.8182   -1.0903    0.0000 C.ar    1  UNL1        0.0000
     12 C          -1.0918   -2.8249    0.0000 C.ar    1  UNL1        0.0000
     13 C           1.0918   -2.8249    0.0000 C.ar    1  UNL1        0.0000
     14 C           4.1961   -0.6773    0.0000 C.ar    1  UNL1        0.0000
     15 C           4.1961    0.6773    0.0000 C.ar    1  UNL1        0.0000
     16 C           0.6825    4.1912    0.0000 C.ar    1  UNL1        0.0000
     17 C          -0.6825    4.1912    0.0000 C.ar    1  UNL1        0.0000
     18 C          -4.1961    0.6773    0.0000 C.ar    1  UNL1        0.0000
     19 C          -4.1961   -0.6773    0.0000 C.ar    1  UNL1        0.0000
     20 C          -0.6825   -4.1912    0.0000 C.ar    1  UNL1        0.0000
     21 C           0.6825   -4.1912    0.0000 C.ar    1  UNL1        0.0000
     22 H           5.0441   -1.3538    0.0000 H       1  UNL1        0.0000
     23 H           5.0441    1.3538    0.0000 H       1  UNL1        0.0000
     24 H           1.3558    5.0416    0.0000 H       1  UNL1        0.0000
     25 H          -1.3558    5.0416    0.0000 H       1  UNL1        0.0000
     26 H          -5.0441    1.3538    0.0000 H       1  UNL1        0.0000
     27 H          -5.0441   -1.3538    0.0000 H       1  UNL1        0.0000
     28 H          -1.3558   -5.0416    0.0000 H       1  UNL1        0.0000
     29 H           1.3558   -5.0416    0.0000 H       1  UNL1        0.0000
     30 C           2.4150    2.4083    0.0000 C.2     1  UNL1        0.0000
     31 C          -2.4150    2.4083    0.0000 C.2     1  UNL1        0.0000
     32 C          -2.4150   -2.4083    0.0000 C.2     1  UNL1        0.0000
     33 C           2.4150   -2.4083    0.0000 C.2     1  UNL1        0.0000
     34 H           3.1855    3.1752    0.0000 H       1  UNL1        0.0000
     35 H          -3.1855    3.1752    0.0000 H       1  UNL1        0.0000
     36 H          -3.1855   -3.1752    0.0000 H       1  UNL1        0.0000
     37 H           3.1855   -3.1752    0.0000 H       1  UNL1        0.0000
@<TRIPOS>BOND
     1    29    21    1
     2    20    21   ar
     3    20    28    1
     4    20    12   ar
     5    21    13   ar
     6    22    14    1
     7    23    15    1
     8    24    16    1
     9    25    17    1
    10    26    18    1
    11    27    19    1
    12    19    11   ar
    13    19    18   ar
    14    30    34    1
    15    30     7    2
    16    30     8    1
    17    31    35    1
    18    31    10    1
    19    31     9    2
    20    32    36    1
    21    32    11    1
    22    32    12    2
    23    33    37    1
    24    33     6    2
    25    33    13    1
    26    10     4   ar
    27    10    18   ar
    28     2     6   ar
    29     2     7   ar
    30     2     1    1
    31     3     8   ar
    32     3     9   ar
    33     3     1    1
    34     4     1    1
    35     4    11   ar
    36     5     1    1
    37     5    12   ar
    38     5    13   ar
    39     6    14   ar
    40     7    15   ar
    41     8    16   ar
    42     9    17   ar
    43    14    15   ar
    44    16    17   ar
